          18
 
O        0.0000    1.1332    0.0000
C       -1.0949    0.3193    0.0000
H       -2.0498    0.8224    0.0000
C        0.7179   -0.9880    0.0000
H        1.3732   -1.8479    0.0000
C       -0.7179   -0.9880    0.0000
H       -1.3732   -1.8479    0.0000
C        1.0949    0.3193    0.0000
H        2.0498    0.8224    0.0000
O        0.0000   -1.6344    3.7000
C       -1.0949   -0.8205    3.7000
H       -2.0498   -1.3236    3.7000
C        0.7179    0.4869    3.7000
H        1.3732    1.3467    3.7000
C       -0.7179    0.4869    3.7000
H       -1.3732    1.3467    3.7000
C        1.0949   -0.8205    3.7000
H        2.0498   -1.3236    3.7000
