          18
 
S        0.0000    1.1539    0.0000
C        1.2438   -0.0563    0.0000
H        2.2852    0.2366    0.0000
C       -0.7150   -1.3177    0.0000
H       -1.3206   -2.2179    0.0000
C        0.7150   -1.3177    0.0000
H        1.3206   -2.2179    0.0000
C       -1.2438   -0.0563    0.0000
H       -2.2852    0.2366    0.0000
S        0.0000   -0.0452    3.6009
C        0.0000    1.1986    4.8111
H        0.0000    2.2401    4.5182
C        0.0000   -0.7602    6.0725
H        0.0000   -1.3658    6.9727
C        0.0000    0.6698    6.0725
H        0.0000    1.2754    6.9727
C        0.0000   -1.2890    4.8111
H        0.0000   -2.3304    4.5182
